/*--------------------------------*- C++ -*----------------------------------*\
  =========                 |
  \\      /  F ield         | OpenFOAM: The Open Source CFD Toolbox
   \\    /   O peration     | Website:  https://openfoam.org
    \\  /    A nd           | Version:  10
     \\/     M anipulation  |
\*---------------------------------------------------------------------------*/
FoamFile
{
    format          ascii;
    class           dictionary;
    object          blockMeshDict;
}
// * * * * * * * * * * * * * * * * * * * * * * * * * * * * * * * * * * * * * //
#include "../setUp"

convertToMeters 1;

vertices
(
    ( $xMin   $yMin   $zMin)
    ( $xMax   $yMin   $zMin)
    ( $xMax   $yMax   $zMin)
    ( $xMin   $yMax   $zMin)
    ( $xMin   $yMin   $zMax)
    ( $xMax   $yMin   $zMax)
    ( $xMax   $yMax   $zMax)
    ( $xMin   $yMax   $zMax)
);

blocks
(
    hex (0 1 2 3 4 5 6 7) ($nx $ny $nz) simpleGrading (1.0 1.0 1)
);

edges
(
);

boundary
(
    north
    {
        type patch;
        faces
        (
            (3 7 6 2)
        );
    }
    west
    {
        type patch;
        faces
        (
            (0 4 7 3)
        );
    }
    east
    {
        type patch;
        faces
        (
            (2 6 5 1)
        );
    }
    south
    {
        type patch;
        faces
        (
            (1 5 4 0)
        );
    }
    minZ
    {
        type wall;
        faces
        (
            (0 3 2 1)
        );
    }
    maxZ
    {
        type patch;
        faces
        (
            (4 5 6 7)
        );
    }
);

mergePatchPairs
(
);


// ************************************************************************* //

