/*--------------------------------*- C++ -*----------------------------------*\
  =========                 |
  \\      /  F ield         | OpenFOAM: The Open Source CFD Toolbox
   \\    /   O peration     | Website:  https://openfoam.org
    \\  /    A nd           | Version:  10
     \\/     M anipulation  |
\*---------------------------------------------------------------------------*/
FoamFile
{
    format      ascii;
    class       dictionary;
    object      topoSetDict;
}
// * * * * * * * * * * * * * * * * * * * * * * * * * * * * * * * * * * * * * //

actions
(
    // Select based on surface
    {
        name   refineCells;
        type   cellSet;
        action new;
        source surfaceToCell;
        sourceInfo
        {
            file            "constant/triSurface/Bolund_GeoTIFF_file.stl";
            outsidePoints   ((-87.88 -121.88 30.82));    // definition of outside
            includeCut      false;              // cells cut by surface
            includeInside   false;              // cells not on outside of surf
            includeOutside  false;              // cells on outside of surf
            nearDistance    5.51;                 // cells with centre near surf
                                            // (set to -1 if not used)
            curvature       -100;                // cells within nearDistance
                                            // and near surf curvature
                                            // (set to -100 if not used)
        }
    }
);

// ************************************************************************* //
